ucte/ucte-converter/src/test/resources/realCase.uct
##C 2007.05.01
Generated by Convergence, RTE's network analysis tool (2010.05.04 19:27)
Informations      : 20100505_0330_FO3_UX3.uct; Topological Merging; Vulcanus Adjustement ( 2010/05/05 03:30 )
Date of situation : 2010/05/05 03:30
##N
##ZME
0BAR  5  Bar          0 0        14.7281 10.4000 0.00000 0.00000 
0BUDVA5  Budva        0 0        12.6097 4.30000 0.00000 0.00000 
0CETIN5  Cetinje      0 0        11.6009 6.30000 0.00000 0.00000 
0HNOVI5  Herceg Novi  0 0        10.4912 8.30000 0.00000 0.00000 
0HPERU2  HPP Perucica 0 0        0.00000 0.00000 0.00000 0.00000 
0HPERU5  HPP Perucica 0 2 115.00 0.00000 0.00000 -33.200 10.0000 0.00000 -300.00 10.0000 -40.000 
0HPIVA2  HPP Piva     0 0        0.00000 0.00000 -0.0000 -0.0000 0.00000 -342.00 10.0000 -50.000 
0MOJKO2  Mojkovac     0 0        14.7281 13.4000 0.00000 0.00000 
0MOJKT2  Mojkovac KT  0 0        0.00000 0.00000 0.00000 0.00000 
0NIKSI5  Niksic       0 0        18.9649 14.5000 0.00000 0.00000 
0PL_ZA51 Plje-Zam     1 0        0.00000 0.00000 0.00000 0.00000 
0PODG12  Podgorica 1  0 0        0.00000 0.00000 0.00000 0.00000 
0PODG15  Podgorica 1  0 0        32.6843 16.9000 0.00000 0.00000 
0PODG21  Podgorica 2  0 0        0.00000 0.00000 0.00000 0.00000 
0PODG25  Podgorica 2  0 0        156.864 102.100 0.00000 0.00000 
0RPRIB1  RPRibarevine 0 0        0.00000 0.00000 0.00000 0.00000 
0TIVAT5  Tivat        0 0        5.24562 3.10000 0.00000 0.00000 
0TPLJE1  TPP Pljevlja 0 0        0.00000 0.00000 0.00000 0.00000 
0TPLJE2  TPP Pljevlja 0 2 235.00 0.00000 0.00000 -150.00 10.0000 0.00000 -190.00 10.0000 -120.00 
0TPLJE5  TPP Pljevlja 0 0        10.4912 6.30000 0.00000 0.00000 
##L
0BAR  5  0BUDVA5  1 0 6.4100 13.930 90.85000    360             
0BUDVA5  0CETIN5  1 0 2.2070 4.7950 31.15000    470             
0BUDVA5  0TIVAT5  1 0 3.1900 6.9200 45.15000    360             
0HPERU5  0NIKSI5  1 1 0.5200 1.7100 109.4400   1440             
0HPIVA2  0TPLJE2  1 0 2.9400 20.090 271.8100   1000             
0HPIVA2  0TPLJE2  2 0 2.9400 20.090 271.8100    960             
0MOJKT2  0MOJKO2  1 0 0.1800 1.0000 5.980000    700             
0MOJKT2  0PODG12  1 0 5.9200 31.080 186.9000    700             
0PL_ZA51 0TPLJE5  1 0 3.4850 7.5690 49.37000    360             
0PODG12  0HPERU2  1 0 2.7700 14.320 92.60000    720             
0PODG15  0HPERU5  1 1 2.7200 5.0000 280.2000   1440             
0PODG15  0PODG25  1 0 0.3530 1.8420 21.28000   1280             
0PODG15  0PODG25  2 0 0.3570 1.8610 21.50000   1280             
0PODG25  0BAR  5  1 0 9.3230 19.159 115.5900    470             
0PODG25  0BUDVA5  1 0 7.6570 15.548 92.14000    470             
0PODG25  0CETIN5  1 0 3.8350 12.712 89.71000    645             
0RPRIB1  0PODG21  1 0 2.5300 28.050 303.4800   2000             
0TIVAT5  0HNOVI5  1 0 3.9700 8.6300 56.30000    360             
0TPLJE1  0RPRIB1  1 0 1.6300 17.980 186.8600   2000             
0TPLJE2  0MOJKT2  1 0 5.7600 30.240 157.9100    700 
##T
0HPERU5  0HPERU2  1 0 110.0 220.0 125.0 0.2500 10.686 0.000000 0.0000    656             
0PODG15  0PODG12  1 0 115.0 220.0 150.0 0.2410 10.139 0.000000 0.0000    753             
0PODG15  0PODG12  2 0 115.0 220.0 150.0 0.2520 9.0110 0.000000 0.0000    753             
0PODG25  0PODG21  1 0 115.0 400.0 300.0 0.0910 5.4000 0.000000 0.0000   1506             
0PODG25  0PODG21  2 0 115.0 400.0 300.0 0.0890 5.3560 0.000000 0.0000   1506             
0TPLJE2  0TPLJE1  1 0 231.0 400.0 400.0 0.1980 15.915 0.000000 0.0000   1000             
0TPLJE2  0TPLJE1  2 0 231.0 400.0 400.0 0.2050 15.741 0.000000 0.0000   1000             
0TPLJE5  0TPLJE2  1 0 115.0 220.0 125.0 0.2500 11.120 0.000000 0.0000    600        
##R
0HPERU5  0HPERU2  1 2.000  7  -3       
0PODG15  0PODG12  1 1.250 12  -1       
0PODG15  0PODG12  2 1.250 12  -1       
0PODG25  0PODG21  1 2.500  2  -1       
0PODG25  0PODG21  2 2.500  2  -1       
0TPLJE2  0TPLJE1  1 5.000  1   0       
0TPLJE2  0TPLJE1  2 5.000  1   0       
0TPLJE5  0TPLJE2  1 2.000  7   5       
     

